Bus_37/ieee37_VLL_Node.Txt

LINE-LINE VOLTAGES BY BUS & NODE

Bus       Node    VLN (kV)   Angle      pu     Base kV 

SOURCEBUS 1-2        230 /_   30.0   0.99999   230.000
   -      2-3        230 /_  -90.0   0.99999   230.000
   -      3-1        230 /_  150.0   0.99999   230.000
799 ..... 1-2     4.4328 /_   26.6   0.92351     4.800
   -      2-3      4.552 /_  -94.3   0.94833     4.800
   -      3-1     4.4314 /_  144.8   0.92322     4.800
709 ..... 1-2     4.6638 /_   26.5   0.97163     4.800
   -      2-3     4.8234 /_  -95.7    1.0049     4.800
   -      3-1     4.5904 /_  143.6   0.95633     4.800
775 ..... 1-2    0.46638 /_   26.5   0.97163     0.480
   -      2-3    0.48234 /_  -95.7    1.0049     0.480
   -      3-1    0.45904 /_  143.6   0.95633     0.480
701 ..... 1-2     4.7627 /_   26.5   0.99224     4.800
   -      2-3     4.8891 /_  -95.3    1.0186     4.800
   -      3-1     4.6946 /_  144.2   0.97805     4.800
702 ..... 1-2     4.7294 /_   26.4   0.98529     4.800
   -      2-3     4.8615 /_  -95.5    1.0128     4.800
   -      3-1     4.6546 /_  144.0   0.96971     4.800
705 ..... 1-2     4.7263 /_   26.4   0.98465     4.800
   -      2-3      4.855 /_  -95.5    1.0115     4.800
   -      3-1     4.6482 /_  144.1   0.96838     4.800
713 ..... 1-2     4.7229 /_   26.4   0.98394     4.800
   -      2-3     4.8524 /_  -95.6    1.0109     4.800
   -      3-1     4.6458 /_  144.0   0.96787     4.800
703 ..... 1-2     4.6959 /_   26.4   0.97831     4.800
   -      2-3     4.8425 /_  -95.7    1.0089     4.800
   -      3-1     4.6228 /_  143.8   0.96308     4.800
727 ..... 1-2     4.6904 /_   26.4   0.97718     4.800
   -      2-3     4.8394 /_  -95.6    1.0082     4.800
   -      3-1     4.6181 /_  143.8   0.96209     4.800
730 ..... 1-2     4.6716 /_   26.4   0.97324     4.800
   -      2-3      4.828 /_  -95.7    1.0058     4.800
   -      3-1     4.5974 /_  143.7    0.9578     4.800
704 ..... 1-2     4.7146 /_   26.4   0.98222     4.800
   -      2-3     4.8401 /_  -95.6    1.0084     4.800
   -      3-1     4.6369 /_  144.1   0.96603     4.800
714 ..... 1-2     4.7134 /_   26.4   0.98196     4.800
   -      2-3     4.8396 /_  -95.6    1.0083     4.800
   -      3-1     4.6366 /_  144.0   0.96595     4.800
720 ..... 1-2     4.7087 /_   26.4   0.98099     4.800
   -      2-3      4.824 /_  -95.6     1.005     4.800
   -      3-1      4.625 /_  144.1   0.96354     4.800
742 ..... 1-2     4.7247 /_   26.4    0.9843     4.800
   -      2-3      4.851 /_  -95.5    1.0106     4.800
   -      3-1     4.6473 /_  144.1   0.96818     4.800
712 ..... 1-2     4.7257 /_   26.4   0.98453     4.800
   -      2-3     4.8541 /_  -95.6    1.0113     4.800
   -      3-1     4.6451 /_  144.1   0.96773     4.800
706 ..... 1-2     4.7082 /_   26.3   0.98087     4.800
   -      2-3      4.822 /_  -95.6    1.0046     4.800
   -      3-1     4.6244 /_  144.1   0.96341     4.800
725 ..... 1-2     4.7076 /_   26.3   0.98075     4.800
   -      2-3     4.8203 /_  -95.6    1.0042     4.800
   -      3-1      4.624 /_  144.1   0.96334     4.800
707 ..... 1-2     4.6999 /_   26.3   0.97915     4.800
   -      2-3     4.7991 /_  -95.6   0.99982     4.800
   -      3-1     4.6173 /_  144.3   0.96193     4.800
724 ..... 1-2     4.6984 /_   26.2   0.97883     4.800
   -      2-3     4.7946 /_  -95.6   0.99887     4.800
   -      3-1     4.6163 /_  144.3   0.96174     4.800
722 ..... 1-2      4.699 /_   26.3   0.97897     4.800
   -      2-3     4.7966 /_  -95.6    0.9993     4.800
   -      3-1     4.6164 /_  144.3   0.96175     4.800
708 ..... 1-2      4.652 /_   26.5   0.96917     4.800
   -      2-3     4.8183 /_  -95.7    1.0038     4.800
   -      3-1     4.5798 /_  143.6   0.95413     4.800
733 ..... 1-2     4.6405 /_   26.5   0.96678     4.800
   -      2-3     4.8134 /_  -95.7    1.0028     4.800
   -      3-1     4.5704 /_  143.5   0.95218     4.800
732 ..... 1-2     4.6517 /_   26.5    0.9691     4.800
   -      2-3     4.8176 /_  -95.7    1.0037     4.800
   -      3-1     4.5777 /_  143.6   0.95369     4.800
731 ..... 1-2     4.6628 /_   26.4   0.97141     4.800
   -      2-3     4.8193 /_  -95.7     1.004     4.800
   -      3-1      4.589 /_  143.7   0.95605     4.800
710 ..... 1-2      4.622 /_   26.6   0.96291     4.800
   -      2-3     4.8006 /_  -95.7    1.0001     4.800
   -      3-1     4.5473 /_  143.5   0.94735     4.800
735 ..... 1-2     4.6215 /_   26.6   0.96281     4.800
   -      2-3     4.7998 /_  -95.7   0.99997     4.800
   -      3-1     4.5447 /_  143.5    0.9468     4.800
736 ..... 1-2     4.6193 /_   26.6   0.96235     4.800
   -      2-3     4.7929 /_  -95.7   0.99852     4.800
   -      3-1     4.5457 /_  143.5   0.94702     4.800
711 ..... 1-2     4.6015 /_   26.6   0.95864     4.800
   -      2-3     4.7979 /_  -95.7   0.99957     4.800
   -      3-1     4.5349 /_  143.3   0.94478     4.800
741 ..... 1-2     4.6011 /_   26.7   0.95856     4.800
   -      2-3     4.7976 /_  -95.7    0.9995     4.800
   -      3-1     4.5334 /_  143.3   0.94446     4.800
740 ..... 1-2      4.601 /_   26.7   0.95855     4.800
   -      2-3     4.7971 /_  -95.7   0.99941     4.800
   -      3-1     4.5323 /_  143.3   0.94423     4.800
718 ..... 1-2     4.7072 /_   26.4   0.98067     4.800
   -      2-3     4.8385 /_  -95.5     1.008     4.800
   -      3-1     4.6348 /_  144.0   0.96558     4.800
744 ..... 1-2      4.687 /_   26.4   0.97646     4.800
   -      2-3     4.8375 /_  -95.6    1.0078     4.800
   -      3-1     4.6161 /_  143.7   0.96169     4.800
734 ..... 1-2     4.6243 /_   26.6   0.96339     4.800
   -      2-3     4.8058 /_  -95.7    1.0012     4.800
   -      3-1     4.5548 /_  143.4   0.94891     4.800
737 ..... 1-2     4.6082 /_   26.6   0.96005     4.800
   -      2-3     4.8009 /_  -95.7    1.0002     4.800
   -      3-1     4.5448 /_  143.3   0.94684     4.800
738 ..... 1-2     4.6027 /_   26.6    0.9589     4.800
   -      2-3     4.7989 /_  -95.7   0.99977     4.800
   -      3-1     4.5395 /_  143.3   0.94572     4.800
728 ..... 1-2     4.6851 /_   26.4   0.97607     4.800
   -      2-3     4.8357 /_  -95.6    1.0074     4.800
   -      3-1     4.6142 /_  143.8   0.96129     4.800
729 ..... 1-2     4.6853 /_   26.4   0.97611     4.800
   -      2-3     4.8372 /_  -95.6    1.0078     4.800
   -      3-1     4.6156 /_  143.7   0.96159     4.800
799R .... 1-2     4.8208 /_   26.5    1.0043     4.800
   -      2-3     4.9412 /_  -94.9    1.0294     4.800
   -      3-1     4.7734 /_  144.5   0.99445     4.800
