code/opendss/Bus_37/ieee37_Curr_Elem.Txt

CIRCUIT ELEMENT CURRENTS

(Currents into element from indicated bus)

Power Delivery Elements

  Bus     Phase    Magnitude, A     Angle      (Real)   +j  (Imag)

ELEMENT = "Vsource.SOURCE"
SOURCEBUS     1           4.9909 /_  141.0 =    -3.8804 +j    3.1387
SOURCEBUS     2           4.0411 /_   35.0 =     3.3112 +j    2.3165
SOURCEBUS     3           5.4847 /_  -84.0 =    0.56923 +j   -5.4551
------------
SOURCEBUS     0           4.9909 /_  -39.0 =     3.8804 +j   -3.1387
SOURCEBUS     0           4.0411 /_ -145.0 =    -3.3112 +j   -2.3165
SOURCEBUS     0           5.4847 /_   96.0 =   -0.56923 +j    5.4551

ELEMENT = "Transformer.SUBXF"
SOURCEBUS     1           4.9909 /_  -39.0 =     3.8804 +j   -3.1387
SOURCEBUS     2           4.0411 /_ -145.0 =    -3.3112 +j   -2.3165
SOURCEBUS     3           5.4847 /_   96.0 =   -0.56923 +j    5.4551
SOURCEBUS     0                0 /_    0.0 =          0 +j         0
------------
799           1           239.15 /_  141.0 =    -185.94 +j    150.39
799           2           193.63 /_   35.0 =     158.66 +j       111
799           3           262.81 /_  -84.0 =     27.276 +j   -261.39
799           0                0 /_    0.0 =          0 +j         0

ELEMENT = "Transformer.XFM1"
709           1                0 /_  -84.8 =  1.2128E-171 +j -1.3343E-170
709           2                0 /_  105.7 =  -1.0518E-170 +j 3.7387E-170
709           3                0 /_  -68.8 =  9.3055E-171 +j -2.4046E-170
709           0                0 /_    0.0 =          0 +j         0
------------
775           1                0 /_    0.0 =  4.9355E-178 +j         0
775           2                0 /_ -108.4 =  -9.871E-178 +j -2.9613E-177
775           3                0 /_  -63.4 =  1.9742E-177 +j -3.9484E-177
775           0                0 /_    0.0 =          0 +j         0

ELEMENT = "Line.L1"
701           1            120.1 /_  -35.1 =      98.21 +j   -69.121
701           2           124.52 /_ -142.0 =    -98.059 +j   -76.745
701           3           145.87 /_   90.1 =   -0.15146 +j    145.87
------------
702           1           120.13 /_  144.8 =    -98.208 +j    69.186
702           2           124.54 /_   38.0 =     98.115 +j    76.709
702           3           145.89 /_  -90.0 =   0.092968 +j   -145.89

ELEMENT = "Line.L2"
702           1           20.625 /_  -53.7 =     12.223 +j   -16.613
702           2           21.082 /_ -123.5 =    -11.633 +j   -17.582
702           3             34.2 /_   91.0 =   -0.58999 +j    34.195
------------
705           1           20.635 /_  126.3 =    -12.223 +j    16.626
705           2           21.082 /_   56.5 =     11.644 +j    17.575
705           3           34.205 /_  -89.0 =    0.57853 +j   -34.201

ELEMENT = "Line.L3"
702           1           59.494 /_  -37.6 =     47.123 +j   -36.318
702           2             72.9 /_ -136.4 =    -52.801 +j   -50.264
702           3           86.768 /_   86.2 =     5.6782 +j    86.582
------------
713           1           59.503 /_  142.4 =    -47.123 +j    36.332
713           2           72.904 /_   43.6 =     52.814 +j    50.256
713           3           86.775 /_  -93.8 =     -5.691 +j   -86.588

ELEMENT = "Line.L4"
702           1           42.124 /_  -22.7 =     38.862 +j   -16.255
702           2           34.827 /_ -165.3 =     -33.68 +j   -8.8629
702           3           25.646 /_  101.7 =    -5.1812 +j    25.117
------------
703           1           42.155 /_  157.2 =    -38.858 +j    16.344
703           2           34.889 /_   14.6 =     33.757 +j     8.813
703           3           25.669 /_  -78.5 =     5.1009 +j   -25.157

ELEMENT = "Line.L5"
703           1           42.164 /_  -22.8 =     38.857 +j   -16.367
703           2           34.905 /_ -165.4 =    -33.778 +j   -8.7997
703           3           25.675 /_  101.4 =    -5.0795 +j    25.167
------------
727           1           42.166 /_  157.1 =    -38.857 +j    16.375
727           2            34.91 /_   14.6 =     33.784 +j    8.7954
727           3           25.677 /_  -78.6 =     5.0727 +j    -25.17

ELEMENT = "Line.L6"
703           1          0.02371 /_   87.7 =  0.00093913 +j  0.023692
703           2         0.024362 /_  -33.0 =   0.020427 +j -0.013275
703           3         0.023762 /_ -154.0 =  -0.021355 +j -0.010422
------------
730           1                0 /_    5.2 =  9.2059E-175 +j 8.4358E-176
730           2                0 /_ -164.3 =  -2.5841E-174 +j -7.2696E-175
730           3                0 /_   21.1 =  1.6638E-174 +j 6.427E-175

ELEMENT = "Line.L7"
704           1           23.906 /_    2.6 =     23.882 +j     1.065
704           2           26.813 /_ -168.7 =    -26.289 +j   -5.2761
704           3           4.8501 /_   60.3 =     2.4062 +j    4.2111
------------
714           1           23.906 /_ -177.5 =    -23.882 +j   -1.0624
714           2           26.815 /_   11.3 =     26.291 +j    5.2747
714           3           4.8522 /_ -119.8 =    -2.4085 +j   -4.2122

ELEMENT = "Line.L8"
704           1           24.434 /_  -58.0 =     12.934 +j    -20.73
704           2           52.218 /_ -120.6 =    -26.543 +j   -44.969
704           3           67.094 /_   78.3 =     13.609 +j    65.699
------------
720           1            24.46 /_  121.9 =    -12.933 +j    20.762
720           2           52.216 /_   59.4 =      26.57 +j    44.951
720           3           67.113 /_ -101.7 =    -13.637 +j   -65.713

ELEMENT = "Line.L9"
705           1           1.9094 /_    1.5 =     1.9087 +j   0.05145
705           2           21.082 /_ -123.5 =    -11.651 +j   -17.571
705           3           20.046 /_   60.9 =     9.7419 +j    17.519
------------
742           1           1.9088 /_ -178.8 =    -1.9083 +j  -0.04127
742           2           21.082 /_   56.4 =     11.659 +j    17.565
742           3           20.054 /_ -119.1 =    -9.7511 +j   -17.524

ELEMENT = "Line.L10"
705           1           19.609 /_  -58.3 =     10.314 +j   -16.677
705           2        0.0078477 /_  -33.0 =  0.0065796 +j -0.0042773
705           3           19.616 /_  121.7 =     -10.32 +j    16.682
------------
712           1           19.615 /_  121.7 =    -10.314 +j    16.685
712           2      6.0028E-012 /_   65.4 =  2.5011E-012 +j 5.457E-012
712           3           19.615 /_  -58.3 =     10.314 +j   -16.685

ELEMENT = "Line.L11"
706           1        0.0088837 /_   87.8 =  0.00033771 +j 0.0088773
706           2           9.6071 /_ -120.5 =    -4.8719 +j   -8.2801
706           3           9.5992 /_   59.5 =     4.8715 +j    8.2713
------------
725           1      6.9265E-012 /_  156.8 =  -6.3665E-012 +j 2.7285E-012
725           2           9.6066 /_   59.5 =     4.8795 +j    8.2752
725           3           9.6066 /_ -120.5 =    -4.8795 +j   -8.2752

ELEMENT = "Line.L12"
707           1         0.024101 /_   87.8 =  0.0009057 +j  0.024084
707           2           9.9103 /_ -120.3 =    -5.0063 +j   -8.5528
707           3            9.889 /_   59.6 =     5.0054 +j    8.5287
------------
724           1      1.5253E-012 /_  -63.4 =  6.8212E-013 +j -1.3642E-012
724           2           9.9091 /_   59.5 =     5.0269 +j    8.5393
724           3           9.9091 /_ -120.5 =    -5.0269 +j   -8.5393

ELEMENT = "Line.L13"
707           1           4.8351 /_  -58.1 =     2.5543 +j   -4.1054
707           2           32.697 /_ -120.8 =    -16.737 +j   -28.088
707           3           35.179 /_   66.2 =     14.182 +j    32.194
------------
722           1           4.8383 /_  121.9 =    -2.5542 +j    4.1092
722           2           32.697 /_   59.2 =      16.74 +j    28.086
722           3           35.182 /_ -113.8 =    -14.186 +j   -32.195

ELEMENT = "Line.L14"
708           1                0 /_  147.6 =  -2.9165E-164 +j 1.8477E-164
708           2                0 /_   -7.2 =  1.8014E-164 +j -2.2655E-165
708           3                0 /_  -55.5 =  1.1151E-164 +j -1.6212E-164
------------
733           1                0 /_  -32.4 =  2.9165E-164 +j -1.8473E-164
733           2                0 /_  172.9 =  -1.8011E-164 +j 2.2538E-165
733           3                0 /_  124.5 =  -1.1154E-164 +j 1.6219E-164

ELEMENT = "Line.L15"
708           1                0 /_   96.2 =  -1.8528E-165 +j 1.7008E-164
708           2                0 /_  -74.3 =  2.6556E-168 +j -9.4389E-168
708           3                0 /_  -83.8 =  1.8501E-165 +j -1.6999E-164
------------
732           1                0 /_  -83.8 =  1.8525E-165 +j -1.7005E-164
732           2                0 /_  178.1 =  -7.4033E-177 +j 2.4678E-178
732           3                0 /_   96.2 =  -1.8525E-165 +j 1.7005E-164

ELEMENT = "Line.L16"
709           1                0 /_   95.2 =  -7.1353E-169 +j 7.8437E-168
709           2                0 /_  172.7 =  -1.8022E-164 +j 2.294E-165
709           3                0 /_   -7.3 =  1.8023E-164 +j -2.3018E-165
------------
731           1                0 /_    0.0 =  1.9742E-177 +j         0
731           2                0 /_   -7.3 =  1.8028E-164 +j -2.3159E-165
731           3                0 /_  172.7 =  -1.8028E-164 +j 2.3159E-165

ELEMENT = "Line.L17"
709           1                0 /_  131.2 =  -3.1019E-164 +j 3.549E-164
709           2                0 /_   -7.2 =  1.802E-164 +j -2.2867E-165
709           3                0 /_  -68.6 =  1.2998E-164 +j -3.3203E-164
------------
708           1                0 /_  -48.8 =  3.1018E-164 +j -3.5486E-164
708           2                0 /_  172.8 =  -1.8017E-164 +j 2.2749E-165
708           3                0 /_  111.4 =  -1.3001E-164 +j 3.3211E-164

ELEMENT = "Line.L18"
710           1                0 /_   68.0 =  1.3675E-164 +j 3.3856E-164
710           2                0 /_  -74.3 =  1.6642E-168 +j -5.9113E-168
710           3                0 /_ -112.0 =  -1.3677E-164 +j -3.385E-164
------------
735           1                0 /_ -112.0 =  -1.3675E-164 +j -3.3854E-164
735           2                0 /_   28.4 =  2.9613E-177 +j 1.604E-177
735           3                0 /_   68.0 =  1.3675E-164 +j 3.3854E-164

ELEMENT = "Line.L19"
710           1                0 /_   94.7 =  -1.124E-168 +j 1.3605E-167
710           2                0 /_    9.0 =  8.3574E-165 +j 1.3169E-165
710           3                0 /_ -171.0 =  -8.3563E-165 +j -1.3305E-165
------------
736           1                0 /_  172.9 =  -2.4678E-178 +j 3.0847E-179
736           2                0 /_ -170.8 =  -8.3468E-165 +j -1.3547E-165
736           3                0 /_    9.2 =  8.3468E-165 +j 1.3547E-165

ELEMENT = "Line.L20"
711           1                0 /_ -178.1 =  -1.0468E-164 +j -3.5327E-166
711           2                0 /_  -74.3 =  4.1447E-168 +j -1.471E-167
711           3                0 /_    2.0 =  1.0463E-164 +j 3.6798E-166
------------
741           1                0 /_    2.0 =  1.0467E-164 +j 3.5863E-166
741           2                0 /_  162.0 =  -9.871E-177 +j 3.2081E-177
741           3                0 /_ -178.0 =  -1.0467E-164 +j -3.5863E-166

ELEMENT = "Line.L21"
711           1                0 /_ -177.8 =  -2.0913E-164 +j -8.0172E-166
711           2                0 /_  -74.3 =  1.6683E-168 +j -5.921E-168
711           3                0 /_    2.2 =  2.0911E-164 +j 8.0764E-166
------------
740           1                0 /_    2.2 =  2.0912E-164 +j 8.0388E-166
740           2                0 /_ -168.2 =  -8.8839E-177 +j -1.8508E-177
740           3                0 /_ -177.8 =  -2.0912E-164 +j -8.0388E-166

ELEMENT = "Line.L22"
713           1            41.73 /_  -28.1 =     36.817 +j   -19.645
713           2           72.904 /_ -136.4 =    -52.814 +j   -50.256
713           3           71.708 /_   77.1 =     15.996 +j    69.901
------------
704           1           41.739 /_  151.9 =    -36.816 +j    19.665
704           2           72.909 /_   43.6 =     52.831 +j    50.245
704           3           71.721 /_ -102.9 =    -16.015 +j    -69.91

ELEMENT = "Line.L23"
714           1           19.976 /_    2.6 =     19.955 +j    0.9188
714           2           19.961 /_ -177.4 =     -19.94 +j  -0.91154
714           3         0.016523 /_ -153.9 =  -0.014842 +j -0.0072607
------------
718           1           19.975 /_ -177.4 =    -19.954 +j  -0.90231
718           2           19.975 /_    2.6 =     19.954 +j   0.90231
718           3      4.5475E-013 /_    0.0 =  4.5475E-013 +j         0

ELEMENT = "Line.L24"
720           1           4.7911 /_  -57.8 =     2.5563 +j   -4.0521
720           2           42.608 /_ -120.6 =    -21.718 +j   -36.658
720           3           44.994 /_   64.8 =     19.162 +j     40.71
------------
707           1           4.8152 /_  122.0 =    -2.5552 +j    4.0813
707           2           42.607 /_   59.3 =     21.743 +j    36.641
707           3           45.017 /_ -115.2 =    -19.188 +j   -40.723

ELEMENT = "Line.L25"
720           1         0.032531 /_   87.8 =   0.001237 +j  0.032508
720           2           9.6082 /_ -120.3 =    -4.8516 +j   -8.2934
720           3           9.5796 /_   59.6 =     4.8504 +j    8.2609
------------
706           1        0.0088837 /_  -92.2 =  -0.00033771 +j -0.0088773
706           2           9.6071 /_   59.5 =     4.8719 +j    8.2801
706           3           9.5992 /_ -120.5 =    -4.8715 +j   -8.2713

ELEMENT = "Line.L26"
727           1           34.823 /_  -13.1 =     33.914 +j   -7.9034
727           2            34.91 /_ -165.4 =    -33.784 +j   -8.7954
727           3           16.699 /_   90.4 =   -0.13001 +j    16.699
------------
744           1           34.825 /_  166.9 =    -33.914 +j    7.9145
744           2           34.918 /_   14.6 =     33.794 +j    8.7892
744           3           16.704 /_  -89.6 =    0.12005 +j   -16.704

ELEMENT = "Line.L27"
730           1                0 /_  131.1 =  -3.102E-164 +j 3.55E-164
730           2                0 /_   15.9 =  2.5724E-174 +j 7.3095E-175
730           3                0 /_  -48.9 =  3.102E-164 +j -3.55E-164
------------
709           1                0 /_  -48.9 =  3.1019E-164 +j -3.5498E-164
709           2                0 /_  -74.3 =  2.0608E-168 +j -7.3255E-168
709           3                0 /_  131.1 =  -3.1021E-164 +j 3.5505E-164

ELEMENT = "Line.L28"
733           1                0 /_  153.6 =  -4.3532E-164 +j 2.1582E-164
733           2                0 /_   -9.4 =  3.2378E-164 +j -5.3624E-165
733           3                0 /_  -55.5 =  1.1154E-164 +j -1.6219E-164
------------
734           1                0 /_  -26.4 =  4.3532E-164 +j -2.1574E-164
734           2                0 /_  170.6 =  -3.2373E-164 +j 5.3418E-165
734           3                0 /_  124.5 =  -1.1159E-164 +j 1.6232E-164

ELEMENT = "Line.L29"
734           1                0 /_  174.4 =  -5.537E-164 +j 5.428E-165
734           2                0 /_  -15.5 =  2.4009E-164 +j -6.6374E-165
734           3                0 /_    2.2 =  3.1361E-164 +j 1.2094E-165
------------
737           1                0 /_   -5.6 =  5.537E-164 +j -5.4196E-165
737           2                0 /_  164.6 =  -2.4002E-164 +j 6.6139E-165
737           3                0 /_ -177.8 =  -3.1367E-164 +j -1.1944E-165

ELEMENT = "Line.L30"
734           1                0 /_   68.0 =  1.3673E-164 +j 3.3875E-164
734           2                0 /_    8.8 =  8.3634E-165 +j 1.2956E-165
734           3                0 /_ -122.1 =  -2.2037E-164 +j -3.5171E-164
------------
710           1                0 /_ -112.0 =  -1.3674E-164 +j -3.387E-164
710           2                0 /_ -171.1 =  -8.3591E-165 +j -1.3109E-165
710           3                0 /_   57.9 =  2.2033E-164 +j 3.5181E-164

ELEMENT = "Line.L31"
737           1                0 /_ -175.5 =  -7.9293E-164 +j -6.176E-165
737           2                0 /_    5.9 =  4.7925E-164 +j 4.9817E-165
737           3                0 /_    2.2 =  3.1367E-164 +j 1.1944E-165
------------
738           1                0 /_    4.5 =  7.9292E-164 +j 6.1814E-165
738           2                0 /_ -174.0 =  -4.7921E-164 +j -4.9964E-165
738           3                0 /_ -177.8 =  -3.1371E-164 +j -1.185E-165

ELEMENT = "Line.L32"
738           1                0 /_ -177.9 =  -3.1381E-164 +j -1.1496E-165
738           2                0 /_  -74.3 =  9.9578E-168 +j -3.5341E-167
738           3                0 /_    2.2 =  3.1371E-164 +j 1.185E-165
------------
711           1                0 /_    2.1 =  3.138E-164 +j 1.155E-165
711           2                0 /_  105.7 =  -5.8131E-168 +j 2.0631E-167
711           3                0 /_ -177.9 =  -3.1374E-164 +j -1.1756E-165

ELEMENT = "Line.L33"
744           1           16.706 /_  -29.6 =     14.519 +j    -8.263
744           2           16.699 /_ -149.6 =    -14.407 +j   -8.4446
744           3           16.708 /_   90.4 =   -0.11203 +j    16.708
------------
728           1           16.709 /_  150.3 =    -14.519 +j    8.2693
728           2           16.702 /_   30.4 =     14.412 +j    8.4411
728           3           16.711 /_  -89.6 =    0.10631 +j    -16.71

ELEMENT = "Line.L34"
744           1           9.8255 /_    0.8 =     9.8245 +j   0.13954
744           2           9.8175 /_ -179.2 =    -9.8165 +j  -0.13563
744           3        0.0089185 /_ -154.0 =  -0.0080155 +j -0.0039105
------------
729           1            9.825 /_ -179.2 =    -9.8242 +j  -0.13066
729           2            9.825 /_    0.8 =     9.8242 +j   0.13066
729           3      2.2737E-012 /_    0.0 =  2.2737E-012 +j         0

ELEMENT = "Line.L35"
799R          1           219.91 /_  -39.0 =     170.98 +j   -138.29
799R          2           179.43 /_ -144.2 =     -145.6 +j   -104.86
799R          3           244.48 /_   96.0 =    -25.373 +j    243.15
------------
701           1              220 /_  141.0 =    -170.97 +j    138.45
701           2           179.49 /_   35.7 =     145.74 +j    104.77
701           3           244.53 /_  -84.1 =     25.231 +j   -243.22

ELEMENT = "Transformer.REG1A"
799           1           239.15 /_  -39.0 =     185.94 +j   -150.39
799           2           239.15 /_  141.0 =    -185.94 +j    150.39
------------
799R          1           219.91 /_  141.0 =    -170.98 +j    138.29
799R          2           219.91 /_  -39.0 =     170.98 +j   -138.29

ELEMENT = "Transformer.REG1C"
799           3           262.81 /_   96.0 =    -27.276 +j    261.39
799           2           262.81 /_  -84.0 =     27.276 +j   -261.39
------------
799R          3           244.48 /_  -84.0 =     25.373 +j   -243.15
799R          2           244.48 /_   96.0 =    -25.373 +j    243.15

ELEMENT = "Line.JUMPER"
799           2       0.00017631 /_  -33.9 =  0.00014638 +j -9.8285E-005
------------
799R          2       0.00017631 /_  146.1 =  -0.00014638 +j 9.8285E-005

= = = = = = = = = = = = = = = = = = =  = = = = = = = = = = =  = =

Power Conversion Elements

  Bus     Phase    Magnitude, A     Angle      (Real)   +j  (Imag)

ELEMENT = "Load.S701A"
701           1           31.706 /_    1.3 =     31.698 +j   0.71514
701           2           31.706 /_ -178.7 =    -31.698 +j  -0.71514

ELEMENT = "Load.S701B"
701           2           31.647 /_ -120.3 =    -15.984 +j   -27.314
701           3           31.647 /_   59.7 =     15.984 +j    27.314

ELEMENT = "Load.S701C"
701           3           81.197 /_  120.4 =    -41.068 +j    70.046
701           1           81.197 /_  -59.6 =     41.068 +j   -70.046

ELEMENT = "Load.S712C"
712           3           19.616 /_  121.7 =    -10.315 +j    16.685
712           1           19.616 /_  -58.3 =     10.315 +j   -16.685

ELEMENT = "Load.S713C"
713           3           19.613 /_  121.7 =    -10.306 +j    16.687
713           1           19.613 /_  -58.3 =     10.306 +j   -16.687

ELEMENT = "Load.S714A"
714           1             3.93 /_    2.1 =     3.9274 +j   0.14367
714           2             3.93 /_ -177.9 =    -3.9274 +j  -0.14367

ELEMENT = "Load.S714B"
714           2           4.8659 /_ -119.9 =    -2.4232 +j   -4.2196
714           3           4.8659 /_   60.1 =     2.4232 +j    4.2196

ELEMENT = "Load.S718A"
718           1           19.975 /_    2.6 =     19.955 +j   0.90249
718           2           19.975 /_ -177.4 =    -19.955 +j  -0.90249

ELEMENT = "Load.S720C"
720           3           19.697 /_  121.8 =    -10.376 +j    16.742
720           1           19.697 /_  -58.2 =     10.376 +j   -16.742

ELEMENT = "Load.S722B"
722           2           32.697 /_ -120.8 =     -16.74 +j   -28.087
722           3           32.697 /_   59.2 =      16.74 +j    28.087

ELEMENT = "Load.S722C"
722           3           4.8385 /_  121.9 =    -2.5544 +j    4.1092
722           1           4.8385 /_  -58.1 =     2.5544 +j   -4.1092

ELEMENT = "Load.S724B"
724           2           9.9092 /_ -120.5 =    -5.0268 +j   -8.5395
724           3           9.9092 /_   59.5 =     5.0268 +j    8.5395

ELEMENT = "Load.S725B"
725           2           9.6067 /_ -120.5 =    -4.8794 +j   -8.2753
725           3           9.6067 /_   59.5 =     4.8794 +j    8.2753

ELEMENT = "Load.S727C"
727           3           9.8084 /_  120.3 =    -4.9431 +j    8.4717
727           1           9.8084 /_  -59.7 =     4.9431 +j   -8.4717

ELEMENT = "Load.S728"
728           1           16.709 /_  -29.7 =      14.52 +j   -8.2693
728           2           16.703 /_ -149.6 =    -14.413 +j   -8.4413
728           3           16.711 /_   90.4 =   -0.10693 +j    16.711

ELEMENT = "Load.S729A"
729           1           9.8254 /_    0.8 =     9.8245 +j   0.13074
729           2           9.8254 /_ -179.2 =    -9.8245 +j  -0.13074

ELEMENT = "Load.S730C"
730           3        2.45E-148 /_ -109.0 =  -7.9668E-149 +j -2.3169E-148
730           1        2.45E-148 /_   71.0 =  7.9668E-149 +j 2.3169E-148

ELEMENT = "Load.S731B"
731           2      2.8163E-148 /_  150.3 =  -2.447E-148 +j 1.3942E-148
731           3      2.8163E-148 /_  -29.7 =  2.447E-148 +j -1.3942E-148

ELEMENT = "Load.S732C"
732           3      1.2211E-148 /_ -110.3 =  -4.2392E-149 +j -1.1452E-148
732           1      1.2211E-148 /_   69.7 =  4.2392E-149 +j 1.1452E-148

ELEMENT = "Load.S733A"
733           1      3.3694E-148 /_   15.8 =  3.2417E-148 +j 9.186E-149
733           2      3.3694E-148 /_ -164.2 =  -3.2417E-148 +j -9.186E-149

ELEMENT = "Load.S734C"
734           3       1.225E-148 /_ -110.3 =  -4.2548E-149 +j -1.1488E-148
734           1       1.225E-148 /_   69.7 =  4.2548E-149 +j 1.1488E-148

ELEMENT = "Load.S735C"
735           3       2.447E-148 /_ -109.1 =  -7.999E-149 +j -2.3126E-148
735           1       2.447E-148 /_   70.9 =  7.999E-149 +j 2.3126E-148

ELEMENT = "Load.S736B"
736           2      1.4072E-148 /_  149.0 =  -1.2068E-148 +j 7.2384E-149
736           3      1.4072E-148 /_  -31.0 =  1.2068E-148 +j -7.2384E-149

ELEMENT = "Load.S737A"
737           1      5.6244E-148 /_   14.6 =  5.4425E-148 +j 1.4188E-148
737           2      5.6244E-148 /_ -165.4 =  -5.4425E-148 +j -1.4188E-148

ELEMENT = "Load.S738A"
738           1      5.0533E-148 /_   15.0 =  4.881E-148 +j 1.3084E-148
738           2      5.0533E-148 /_ -165.0 =  -4.881E-148 +j -1.3084E-148

ELEMENT = "Load.S740C"
740           3      2.4683E-148 /_ -108.9 =  -7.992E-149 +j -2.3354E-148
740           1      2.4683E-148 /_   71.1 =  7.992E-149 +j 2.3354E-148

ELEMENT = "Load.S741C"
741           3      1.2333E-148 /_ -110.2 =  -4.2665E-149 +j -1.1571E-148
741           1      1.2333E-148 /_   69.8 =  4.2665E-149 +j 1.1571E-148

ELEMENT = "Load.S742A"
742           1           1.9088 /_    1.2 =     1.9084 +j  0.041286
742           2           1.9088 /_ -178.8 =    -1.9084 +j -0.041286

ELEMENT = "Load.S742B"
742           2           20.054 /_ -119.1 =    -9.7508 +j   -17.524
742           3           20.054 /_   60.9 =     9.7508 +j    17.524

ELEMENT = "Load.S744A"
744           1           9.5728 /_    1.3 =     9.5705 +j   0.20907
744           2           9.5728 /_ -178.7 =    -9.5705 +j  -0.20907

