code/opendss/Bus_37/ieee37_Curr_Seq.Txt

SYMMETRICAL COMPONENT CURRENTS BY CIRCUIT ELEMENT (first 3 phases)

Element             Term      I1         I2         %I2/I1    I0         %I0/I1   %Normal %Emergency

"VSOURCE.SOURCE" ..   1      6.5007       1.5296    23.53  6.5976E-011     0.00      0.00     0.00
   -                  2      6.5007       1.5296    23.53  6.5976E-011     0.00      0.00     0.00
"TRANSFORMER.SUBXF"   1      6.5007       1.5296    23.53  9.3054E-016     0.00    114.77    84.17
   -                  2      311.49       73.291    23.53  7.678E-006     0.00      0.00     0.00
"TRANSFORMER.XFM1"    1  3.9469E-005   8.2809E-007     2.10  1.9561E-009     0.00      0.00     0.00
   -                  2  2.281E-012   2.667E-012   116.93  3.0316E-013    13.29      0.00     0.00
"LINE.L1" .........   1      201.92       43.786    21.68  5.9665E-005     0.00     61.33    40.89
   -                  2      201.95       43.786    21.68  4.6331E-005     0.00      0.00     0.00
"LINE.L2" .........   1      23.952         10.5    43.84  6.0426E-006     0.00      8.61     5.74
   -                  2      23.958         10.5    43.83  3.4885E-006     0.00      0.00     0.00
"LINE.L3" .........   1      27.643       9.4534    34.20  1.0087E-005     0.00      9.25     6.16
   -                  2      27.649       9.4533    34.19  7.2453E-006     0.00      0.00     0.00
"LINE.L4" .........   1      150.36       39.263    26.11  3.2158E-005     0.00     47.40    31.60
   -                  2      150.39       39.263    26.11  1.9545E-005     0.00      0.00     0.00
"LINE.L5" .........   1      34.286        9.639    28.11  5.2104E-006     0.00     10.72     7.15
   -                  2      34.289       9.6391    28.11  3.9671E-006     0.00      0.00     0.00
"LINE.L6" .........   1      116.11        31.11    26.79  1.6299E-005     0.00     36.76    24.51
   -                  2      116.12        31.11    26.79  1.4718E-005     0.00      0.00     0.00
"LINE.L7" .........   1      16.192       12.311    76.03  3.3624E-006     0.00      6.52     4.34
   -                  2      16.194       12.311    76.03  2.9005E-006     0.00      0.00     0.00
"LINE.L8" .........   1  2.7572E-009   4.7763E-011     1.73  5.0913E-013     0.02      0.00     0.00
   -                  2           0            0     0.00           0     0.00      0.00     0.00
"LINE.L9" .........   1      12.479       10.921    87.51  1.9818E-006     0.00      5.19     3.46
   -                  2      12.484       10.921    87.49  1.1796E-012     0.00      0.00     0.00
"LINE.L10" ........   1      11.479       11.482   100.03  1.5068E-006     0.00      4.97     3.31
   -                  2      11.482       11.482   100.00  2.1341E-012     0.00      0.00     0.00
"LINE.L11" ........   1           0            0     0.00           0     0.00      0.00     0.00
   -                  2           0            0     0.00           0     0.00      0.00     0.00
"LINE.L12" ........   1           0            0     0.00           0     0.00      0.00     0.00
   -                  2           0            0     0.00           0     0.00      0.00     0.00
"LINE.L13" ........   1           0            0     0.00           0     0.00      0.00     0.00
   -                  2           0            0     0.00           0     0.00      0.00     0.00
"LINE.L14" ........   1       87.97       35.851    40.75  1.2469E-005     0.00     30.65    20.43
   -                  2      87.976       35.851    40.75  1.1942E-005     0.00      0.00     0.00
"LINE.L15" ........   1      5.8177       5.8225   100.08  8.0353E-007     0.00      2.52     1.68
   -                  2      5.8223       5.8223   100.00  9.7035E-013     0.00      0.00     0.00
"LINE.L16" ........   1      11.336       11.346   100.09  2.1686E-006     0.00      4.91     3.28
   -                  2      11.346       11.346   100.00  1.9707E-012     0.00      0.00     0.00
"LINE.L17" ........   1      93.779       37.302    39.78  1.336E-005     0.00     32.69    21.79
   -                  2      93.784       37.302    39.77  1.2869E-005     0.00      0.00     0.00
"LINE.L18" ........   1      11.728       11.731   100.02  3.9963E-007     0.00      5.08     3.39
   -                  2      11.731       11.731   100.00  1.8452E-012     0.00      0.00     0.00
"LINE.L19" ........   1      5.6232       5.6405   100.31  2.4043E-006     0.00      2.44     1.63
   -                  2      5.6408       5.6408   100.00  6.4137E-013     0.00      0.00     0.00
"LINE.L20" ........   1      5.5982       5.6055   100.13  1.5288E-006     0.00      2.43     1.62
   -                  2      5.6051       5.6051   100.00  1.633E-012     0.00      0.00     0.00
"LINE.L21" ........   1      11.759       11.762   100.02  6.1536E-007     0.00      5.09     3.40
   -                  2      11.762       11.762   100.00  5.1671E-012     0.00      0.00     0.00
"LINE.L22" ........   1      16.184       12.311    76.07  7.2453E-006     0.00      6.51     4.34
   -                  2      16.192       12.311    76.03  3.3624E-006     0.00      0.00     0.00
"LINE.L23" ........   1      11.136       11.142   100.06  2.9005E-006     0.00      4.83     3.22
   -                  2      11.142       11.142   100.00  9.992E-013     0.00      0.00     0.00
"LINE.L24" ........   1           0            0     0.00           0     0.00      0.00     0.00
   -                  2           0            0     0.00           0     0.00      0.00     0.00
"LINE.L25" ........   1           0            0     0.00           0     0.00      0.00     0.00
   -                  2           0            0     0.00           0     0.00      0.00     0.00
"LINE.L26" ........   1      28.518       11.383    39.91  3.9671E-006     0.00      8.92     5.95
   -                  2      28.523       11.383    39.91  2.2623E-006     0.00      0.00     0.00
"LINE.L27" ........   1      105.11        26.15    24.88  1.4718E-005     0.00     32.68    21.79
   -                  2      105.12        26.15    24.88  1.431E-005     0.00      0.00     0.00
"LINE.L28" ........   1      76.743       28.874    37.62  1.1942E-005     0.00     26.40    17.60
   -                  2      76.752       28.874    37.62  1.074E-005     0.00      0.00     0.00
"LINE.L29" ........   1      53.563       30.794    57.49  6.9959E-006     0.00     20.33    13.56
   -                  2      53.574       30.794    57.48  5.1311E-006     0.00      0.00     0.00
"LINE.L30" ........   1      17.344       10.133    58.42  3.8645E-006     0.00      6.63     4.42
   -                  2      17.351       10.133    58.40  2.8025E-006     0.00      0.00     0.00
"LINE.L31" ........   1      34.882       16.995    48.72  5.1311E-006     0.00     12.97     8.65
   -                  2      34.888       16.994    48.71  3.673E-006     0.00      0.00     0.00
"LINE.L32" ........   1       17.35       17.368   100.10  3.673E-006     0.00      7.52     5.01
   -                  2      17.357       17.367   100.06  2.1441E-006     0.00      0.00     0.00
"LINE.L33" ........   1      17.141     0.005944     0.03  9.4046E-007     0.00      4.29     2.86
   -                  2      17.144    0.0059687     0.03  5.9118E-012     0.00      0.00     0.00
"LINE.L34" ........   1      5.6224        5.626   100.06  1.3219E-006     0.00      2.44     1.62
   -                  2      5.6262       5.6262   100.00  5.3158E-013     0.00      0.00     0.00
"LINE.L35" ........   1      286.67       64.941    22.65  9.8583E-005     0.00     86.28    57.52
   -                  2      286.74        64.94    22.65  5.9665E-005     0.00      0.00     0.00
"TRANSFORMER.REG1A"   1      379.63            0     0.00           0     0.00     82.83    60.74
   -                  2      345.12            0     0.00           0     0.00      0.00     0.00
"TRANSFORMER.REG1C"   1      312.41            0     0.00           0     0.00     68.16    49.98
   -                  2      292.31            0     0.00           0     0.00      0.00     0.00
"LINE.JUMPER" .....   1  0.00017304            0     0.00           0     0.00      0.00     0.00
   -                  2  0.00017304            0     0.00           0     0.00      0.00     0.00
"LOAD.S701A" ......   1      32.747            0     0.00           0     0.00      0.00     0.00
"LOAD.S701B" ......   1      32.067            0     0.00           0     0.00      0.00     0.00
"LOAD.S701C" ......   1      82.116            0     0.00           0     0.00      0.00     0.00
"LOAD.S712C" ......   1      19.886            0     0.00           0     0.00      0.00     0.00
"LOAD.S713C" ......   1      19.861            0     0.00           0     0.00      0.00     0.00
"LOAD.S714A" ......   1      3.9053            0     0.00           0     0.00      0.00     0.00
"LOAD.S714B" ......   1      4.8565            0     0.00           0     0.00      0.00     0.00
"LOAD.S718A" ......   1      19.298            0     0.00           0     0.00      0.00     0.00
"LOAD.S720C" ......   1           0            0     0.00           0     0.00      0.00     0.00
"LOAD.S722B" ......   1           0            0     0.00           0     0.00      0.00     0.00
"LOAD.S722C" ......   1           0            0     0.00           0     0.00      0.00     0.00
"LOAD.S724B" ......   1           0            0     0.00           0     0.00      0.00     0.00
"LOAD.S725B" ......   1           0            0     0.00           0     0.00      0.00     0.00
"LOAD.S727C" ......   1      9.9976            0     0.00           0     0.00      0.00     0.00
"LOAD.S728" .......   1      17.144    0.0064819     0.04  2.4302E-015     0.00      0.00     0.00
"LOAD.S729A" ......   1      9.7443            0     0.00           0     0.00      0.00     0.00
"LOAD.S730C" ......   1      19.067            0     0.00           0     0.00      0.00     0.00
"LOAD.S731B" ......   1      19.652            0     0.00           0     0.00      0.00     0.00
"LOAD.S732C" ......   1      10.084            0     0.00           0     0.00      0.00     0.00
"LOAD.S733A" ......   1      19.469            0     0.00           0     0.00      0.00     0.00
"LOAD.S734C" ......   1      10.133            0     0.00           0     0.00      0.00     0.00
"LOAD.S735C" ......   1      20.317            0     0.00           0     0.00      0.00     0.00
"LOAD.S736B" ......   1      9.7701            0     0.00           0     0.00      0.00     0.00
"LOAD.S737A" ......   1      32.379            0     0.00           0     0.00      0.00     0.00
"LOAD.S738A" ......   1      30.381            0     0.00           0     0.00      0.00     0.00
"LOAD.S740C" ......   1       20.37            0     0.00           0     0.00      0.00     0.00
"LOAD.S741C" ......   1      9.7077            0     0.00           0     0.00      0.00     0.00
"LOAD.S742A" ......   1      1.8417            0     0.00           0     0.00      0.00     0.00
"LOAD.S742B" ......   1       19.78            0     0.00           0     0.00      0.00     0.00
"LOAD.S744A" ......   1      9.9772            0     0.00           0     0.00      0.00     0.00
