code/opendss/Bus_37/ieee37_Power_seq_kVA.txt

SYMMETRICAL COMPONENT POWERS BY CIRCUIT ELEMENT (first 3 phases)                                     Excess Power

Element             Term    P1(kW)   Q1(kvar)       P2         Q2      P0      Q0       P_Norm      Q_Norm     P_Emerg    Q_Emerg

"Vsource.SOURCE"     1    -2588.4    -1572.6        0.0        0.0     0.0    -0.0
"Vsource.SOURCE"     2        0.0        0.0        0.0        0.0     0.0     0.0
"Transformer.SUBXF"  1     2588.4     1572.6       -0.0       -0.0     0.0     0.0      482.0      292.9        0.0        0.0
"Transformer.SUBXF"  2    -2515.0    -1279.0        2.1        8.2    -0.0     0.0
"Transformer.XFM1"   1        0.0        0.0        0.0        0.0     0.0     0.0        0.0        0.0        0.0        0.0
"Transformer.XFM1"   2        0.0       -0.0       -0.0       -0.0     0.0     0.0
"Line.L1"            1     1843.4      896.5       -3.6       -4.1    -0.0    -0.0        0.0        0.0        0.0        0.0
"Line.L1"            2    -1832.8     -885.9        3.8        4.3     0.0     0.0
"Line.L2"            1      178.7       86.4        1.2       -1.8     0.0    -0.0        0.0        0.0        0.0        0.0
"Line.L2"            2     -178.5      -86.5       -1.2        1.9    -0.0     0.0
"Line.L3"            1      534.8      260.0        3.0       -1.9     0.0    -0.0        0.0        0.0        0.0        0.0
"Line.L3"            2     -533.9     -259.6       -3.0        1.9    -0.0     0.0
"Line.L4"            1     1119.2      539.5       -8.1       -0.5    -0.0    -0.0        0.0        0.0        0.0        0.0
"Line.L4"            2    -1113.9     -534.3        8.7        0.8     0.0     0.0
"Line.L5"            1      253.4      124.1       -2.0        0.8    -0.0    -0.0        0.0        0.0        0.0        0.0
"Line.L5"            2     -253.2     -124.1        2.0       -0.8     0.0     0.0
"Line.L6"            1      860.4      410.3       -6.7       -1.7    -0.0    -0.0        0.0        0.0        0.0        0.0
"Line.L6"            2     -856.7     -408.2        7.0        1.8     0.0     0.0
"Line.L7"            1      120.6       53.9       -0.9        2.4    -0.0    -0.0        0.0        0.0        0.0        0.0
"Line.L7"            2     -120.6      -53.9        0.9       -2.4     0.0     0.0
"Line.L8"            1      326.4      163.2        4.8       -2.1     0.0    -0.0        0.0        0.0        0.0        0.0
"Line.L8"            2     -325.6     -163.0       -4.6        2.3    -0.0     0.0
"Line.L9"            1       92.4       44.3        2.3        0.4     0.0    -0.0        0.0        0.0        0.0        0.0
"Line.L9"            2      -92.3      -44.4       -2.2       -0.3    -0.0     0.0
"Line.L10"           1       86.1       42.2       -1.1       -2.2     0.0    -0.0        0.0        0.0        0.0        0.0
"Line.L10"           2      -86.1      -42.2        1.1        2.2    -0.0    -0.0
"Line.L11"           1       40.9       20.9        1.1        0.0     0.0    -0.0        0.0        0.0        0.0        0.0
"Line.L11"           2      -40.9      -21.0       -1.1       -0.0    -0.0     0.0
"Line.L12"           1       40.9       20.8        1.0        0.0     0.0    -0.0        0.0        0.0        0.0        0.0
"Line.L12"           2      -40.9      -21.0       -1.0       -0.0    -0.0    -0.0
"Line.L13"           1      157.0       79.6        3.2       -0.4     0.0    -0.0        0.0        0.0        0.0        0.0
"Line.L13"           2     -157.0      -79.6       -3.1        0.4     0.0    -0.0
"Line.L14"           1      649.8      305.9       -8.6        1.4    -0.0    -0.0        0.0        0.0        0.0        0.0
"Line.L14"           2     -648.7     -305.3        8.8       -1.3     0.0     0.0
"Line.L15"           1       42.5       22.3       -0.5       -1.4     0.0    -0.0        0.0        0.0        0.0        0.0
"Line.L15"           2      -42.5      -22.4        0.5        1.4     0.0    -0.0
"Line.L16"           1       83.1       39.8        2.7        0.4    -0.0    -0.0        0.0        0.0        0.0        0.0
"Line.L16"           2      -83.0      -40.0       -2.7       -0.4     0.0     0.0
"Line.L17"           1      693.6      328.8       -8.8        0.1    -0.0    -0.0        0.0        0.0        0.0        0.0
"Line.L17"           2     -692.3     -328.2        9.1        0.0     0.0     0.0
"Line.L18"           1       85.5       42.6       -1.1       -2.9     0.0    -0.0        0.0        0.0        0.0        0.0
"Line.L18"           2      -85.5      -42.6        1.1        2.9    -0.0     0.0
"Line.L19"           1       40.5       20.4        1.5        0.3    -0.0    -0.0        0.0        0.0        0.0        0.0
"Line.L19"           2      -40.5      -20.7       -1.4       -0.3     0.0     0.0
"Line.L20"           1       41.9       22.2       -0.4       -1.6     0.0    -0.0        0.0        0.0        0.0        0.0
"Line.L20"           2      -41.9      -22.3        0.4        1.6    -0.0     0.0
"Line.L21"           1       84.9       42.6       -1.0       -3.1    -0.0    -0.0        0.0        0.0        0.0        0.0
"Line.L21"           2      -84.9      -42.6        1.0        3.1    -0.0    -0.0
"Line.L22"           1      447.9      217.4        4.1        0.3     0.0    -0.0        0.0        0.0        0.0        0.0
"Line.L22"           2     -447.0     -217.1       -4.0       -0.2    -0.0     0.0
"Line.L23"           1       83.1       36.4       -1.2        1.9    -0.0    -0.0        0.0        0.0        0.0        0.0
"Line.L23"           2      -83.0      -36.6        1.3       -1.9     0.0    -0.0
"Line.L24"           1      198.6      100.3        4.6       -0.3     0.0    -0.0        0.0        0.0        0.0        0.0
"Line.L24"           2     -197.9     -100.3       -4.2        0.4    -0.0     0.0
"Line.L25"           1       40.9       20.7        1.1        0.1     0.0    -0.0        0.0        0.0        0.0        0.0
"Line.L25"           2      -40.9      -20.9       -1.1       -0.0    -0.0     0.0
"Line.L26"           1      210.7      101.8       -1.5        2.1    -0.0    -0.0        0.0        0.0        0.0        0.0
"Line.L26"           2     -210.6     -101.8        1.5       -2.1     0.0     0.0
"Line.L27"           1      777.7      369.2       -6.1        0.5    -0.0    -0.0        0.0        0.0        0.0        0.0
"Line.L27"           2     -776.7     -368.6        6.2       -0.5     0.0     0.0
"Line.L28"           1      564.8      270.1       -7.1       -1.0    -0.0    -0.0        0.0        0.0        0.0        0.0
"Line.L28"           2     -563.3     -269.4        7.4        1.1     0.0     0.0
"Line.L29"           1      394.8      184.1       -7.4        3.0    -0.0    -0.0        0.0        0.0        0.0        0.0
"Line.L29"           2     -394.0     -183.8        7.7       -2.8     0.0     0.0
"Line.L30"           1      126.1       62.9        0.4       -2.6    -0.0    -0.0        0.0        0.0        0.0        0.0
"Line.L30"           2     -126.0      -63.0       -0.4        2.6     0.0     0.0
"Line.L31"           1      256.3      123.1       -4.4       -1.0    -0.0    -0.0        0.0        0.0        0.0        0.0
"Line.L31"           2     -256.1     -123.1        4.5        1.0    -0.0     0.0
"Line.L32"           1      126.9       64.7       -1.3       -4.6     0.0    -0.0        0.0        0.0        0.0        0.0
"Line.L32"           2     -126.9      -64.8        1.4        4.7    -0.0     0.0
"Line.L33"           1      126.1       63.0        0.0       -0.0    -0.0    -0.0        0.0        0.0        0.0        0.0
"Line.L33"           2     -126.0      -63.0       -0.0        0.0     0.0    -0.0
"Line.L34"           1       41.8       18.9       -0.8        1.0    -0.0    -0.0        0.0        0.0        0.0        0.0
"Line.L34"           2      -41.8      -19.0        0.8       -1.0     0.0     0.0
"Line.L35"           1     2502.7     1242.9       -4.4       -8.6    -0.0    -0.0        0.0        0.0        0.0        0.0
"Line.L35"           2    -2475.6    -1216.8        5.7        9.3     0.0     0.0
"Transformer.REG1A"  1        0.0        0.0        0.0        0.0     0.0     0.0        0.0        0.0        0.0        0.0
"Transformer.REG1A"  2        0.0        0.0        0.0        0.0     0.0     0.0
"Transformer.REG1C"  1        0.0        0.0        0.0        0.0     0.0     0.0        0.0        0.0        0.0        0.0
"Transformer.REG1C"  2        0.0        0.0        0.0        0.0     0.0     0.0
"Line.JUMPER"        1        0.0        0.0        0.0        0.0     0.0     0.0        0.0        0.0        0.0        0.0
"Line.JUMPER"        2        0.0        0.0        0.0        0.0     0.0     0.0
"Load.S701A"         1        0.0        0.0        0.0        0.0     0.0     0.0
"Load.S701B"         1        0.0        0.0        0.0        0.0     0.0     0.0
"Load.S701C"         1        0.0        0.0        0.0        0.0     0.0     0.0
"Load.S712C"         1        0.0        0.0        0.0        0.0     0.0     0.0
"Load.S713C"         1        0.0        0.0        0.0        0.0     0.0     0.0
"Load.S714A"         1        0.0        0.0        0.0        0.0     0.0     0.0
"Load.S714B"         1        0.0        0.0        0.0        0.0     0.0     0.0
"Load.S718A"         1        0.0        0.0        0.0        0.0     0.0     0.0
"Load.S720C"         1        0.0        0.0        0.0        0.0     0.0     0.0
"Load.S722B"         1        0.0        0.0        0.0        0.0     0.0     0.0
"Load.S722C"         1        0.0        0.0        0.0        0.0     0.0     0.0
"Load.S724B"         1        0.0        0.0        0.0        0.0     0.0     0.0
"Load.S725B"         1        0.0        0.0        0.0        0.0     0.0     0.0
"Load.S727C"         1        0.0        0.0        0.0        0.0     0.0     0.0
"Load.S728"          1      126.0       63.0        0.0       -0.0    -0.0    -0.0
"Load.S729A"         1        0.0        0.0        0.0        0.0     0.0     0.0
"Load.S730C"         1        0.0        0.0        0.0        0.0     0.0     0.0
"Load.S731B"         1        0.0        0.0        0.0        0.0     0.0     0.0
"Load.S732C"         1        0.0        0.0        0.0        0.0     0.0     0.0
"Load.S733A"         1        0.0        0.0        0.0        0.0     0.0     0.0
"Load.S734C"         1        0.0        0.0        0.0        0.0     0.0     0.0
"Load.S735C"         1        0.0        0.0        0.0        0.0     0.0     0.0
"Load.S736B"         1        0.0        0.0        0.0        0.0     0.0     0.0
"Load.S737A"         1        0.0        0.0        0.0        0.0     0.0     0.0
"Load.S738A"         1        0.0        0.0        0.0        0.0     0.0     0.0
"Load.S740C"         1        0.0        0.0        0.0        0.0     0.0     0.0
"Load.S741C"         1        0.0        0.0        0.0        0.0     0.0     0.0
"Load.S742A"         1        0.0        0.0        0.0        0.0     0.0     0.0
"Load.S742B"         1        0.0        0.0        0.0        0.0     0.0     0.0
"Load.S744A"         1        0.0        0.0        0.0        0.0     0.0     0.0

Total Circuit Losses =  152.3 +j  386.6
